<?xml version="1.0" encoding="UTF-8"?>

<routes>
  <flow id="motorcycle_edge_N_SC4" type="motorcycle" from="edge_N" to="edge_S" begin="0" end="3600" vehsPerHour="990" departLane="random"/>
  <flow id="car_edge_N_SC4" type="car" from="edge_N" to="edge_S" begin="0" end="3600" vehsPerHour="110" departLane="random"/>
  <flow id="tuktuk_edge_N_SC4" type="tuktuk" from="edge_N" to="edge_S" begin="0" end="3600" vehsPerHour="33" departLane="random"/>
  <flow id="motorcycle_edge_S_SC4" type="motorcycle" from="edge_S" to="edge_N" begin="0" end="3600" vehsPerHour="900" departLane="random"/>
  <flow id="car_edge_S_SC4" type="car" from="edge_S" to="edge_N" begin="0" end="3600" vehsPerHour="100" departLane="random"/>
  <flow id="tuktuk_edge_S_SC4" type="tuktuk" from="edge_S" to="edge_N" begin="0" end="3600" vehsPerHour="30" departLane="random"/>
  <flow id="motorcycle_edge_E_SC4" type="motorcycle" from="edge_E" to="edge_W" begin="0" end="3600" vehsPerHour="900" departLane="random"/>
  <flow id="car_edge_E_SC4" type="car" from="edge_E" to="edge_W" begin="0" end="3600" vehsPerHour="100" departLane="random"/>
  <flow id="tuktuk_edge_E_SC4" type="tuktuk" from="edge_E" to="edge_W" begin="0" end="3600" vehsPerHour="30" departLane="random"/>
  <flow id="motorcycle_edge_W_SC4" type="motorcycle" from="edge_W" to="edge_E" begin="0" end="3600" vehsPerHour="720" departLane="random"/>
  <flow id="car_edge_W_SC4" type="car" from="edge_W" to="edge_E" begin="0" end="3600" vehsPerHour="80" departLane="random"/>
  <flow id="tuktuk_edge_W_SC4" type="tuktuk" from="edge_W" to="edge_E" begin="0" end="3600" vehsPerHour="24" departLane="random"/>
</routes>
