<?xml version="1.0" encoding="UTF-8"?>

<routes>
  <flow id="motorcycle_edge_N_SC3" type="motorcycle" from="edge_N" to="edge_S" begin="0" end="3600" vehsPerHour="220" departLane="random"/>
  <flow id="car_edge_N_SC3" type="car" from="edge_N" to="edge_S" begin="0" end="3600" vehsPerHour="55" departLane="random"/>
  <flow id="tuktuk_edge_N_SC3" type="tuktuk" from="edge_N" to="edge_S" begin="0" end="3600" vehsPerHour="22" departLane="random"/>
  <flow id="motorcycle_edge_S_SC3" type="motorcycle" from="edge_S" to="edge_N" begin="0" end="3600" vehsPerHour="200" departLane="random"/>
  <flow id="car_edge_S_SC3" type="car" from="edge_S" to="edge_N" begin="0" end="3600" vehsPerHour="50" departLane="random"/>
  <flow id="tuktuk_edge_S_SC3" type="tuktuk" from="edge_S" to="edge_N" begin="0" end="3600" vehsPerHour="20" departLane="random"/>
  <flow id="motorcycle_edge_E_SC3" type="motorcycle" from="edge_E" to="edge_W" begin="0" end="3600" vehsPerHour="200" departLane="random"/>
  <flow id="car_edge_E_SC3" type="car" from="edge_E" to="edge_W" begin="0" end="3600" vehsPerHour="50" departLane="random"/>
  <flow id="tuktuk_edge_E_SC3" type="tuktuk" from="edge_E" to="edge_W" begin="0" end="3600" vehsPerHour="20" departLane="random"/>
  <flow id="motorcycle_edge_W_SC3" type="motorcycle" from="edge_W" to="edge_E" begin="0" end="3600" vehsPerHour="160" departLane="random"/>
  <flow id="car_edge_W_SC3" type="car" from="edge_W" to="edge_E" begin="0" end="3600" vehsPerHour="40" departLane="random"/>
  <flow id="tuktuk_edge_W_SC3" type="tuktuk" from="edge_W" to="edge_E" begin="0" end="3600" vehsPerHour="16" departLane="random"/>
</routes>
